Version 4.1
SHEET 1 880 840
WIRE -64 16 -80 16
WIRE 320 16 304 16
WIRE -80 96 -80 16
WIRE 16 96 -80 96
WIRE 128 96 96 96
WIRE 304 96 304 16
WIRE 304 96 128 96
WIRE 304 144 304 96
WIRE -80 176 -80 96
WIRE 128 192 128 96
WIRE 256 192 128 192
WIRE -80 368 -80 256
WIRE 160 368 -80 368
WIRE 304 368 304 240
WIRE 304 368 160 368
WIRE 160 384 160 368
FLAG 160 384 0
FLAG 320 16 ref
IOPIN 320 16 Out
FLAG -64 16 in
IOPIN -64 16 Out
SYMBOL voltage -80 160 R0
SYMATTR InstName Vcc
SYMATTR Value 5
SYMBOL TL431 304 192 R0
SYMATTR InstName U1
SYMBOL res 0 112 R270
WINDOW 0 32 56 VTop 2
WINDOW 3 0 56 VBottom 2
SYMATTR InstName Rbias
SYMATTR Value {Ri}
TEXT -80 456 Left 2 !.step param Ri 200 10k 100\n.op\n.meas DC param FIND Ri WHEN Ix(U1:CATHODE)=0.4m
