Version 4.1
SHEET 1 1320 756
WIRE 480 -48 -432 -48
WIRE 640 -48 480 -48
WIRE 128 0 64 0
WIRE 480 0 480 -48
WIRE 128 32 96 32
WIRE 240 80 176 80
WIRE -432 96 -432 -48
WIRE -304 96 -432 96
WIRE -192 96 -224 96
WIRE -112 96 -192 96
WIRE 96 96 96 32
WIRE 96 96 -112 96
WIRE 640 112 640 -48
WIRE -432 128 -432 96
WIRE -400 128 -432 128
WIRE 176 128 176 80
WIRE 96 144 96 96
WIRE 144 144 96 144
WIRE -112 160 -112 96
WIRE 272 160 208 160
WIRE 368 160 272 160
WIRE 480 160 480 80
WIRE 480 160 448 160
WIRE 528 160 480 160
WIRE 576 160 528 160
WIRE 64 176 64 0
WIRE 80 176 64 176
WIRE 144 176 80 176
WIRE -432 192 -432 128
WIRE -192 208 -192 96
WIRE -160 208 -192 208
WIRE 176 272 176 192
WIRE 192 272 176 272
WIRE -432 336 -432 272
WIRE 80 336 80 176
WIRE 80 336 48 336
WIRE 176 336 80 336
WIRE 464 336 256 336
WIRE 592 336 464 336
WIRE 640 336 640 208
WIRE 640 336 592 336
WIRE 768 336 640 336
WIRE 768 384 768 336
WIRE 48 400 48 336
WIRE 464 400 464 336
WIRE 592 400 592 336
WIRE -112 512 -112 256
WIRE 48 512 48 480
WIRE 48 512 -112 512
WIRE 464 512 464 464
WIRE 464 512 48 512
WIRE 592 512 592 464
WIRE 592 512 464 512
WIRE 768 512 768 464
WIRE 768 512 592 512
WIRE 48 544 48 512
FLAG 240 80 Vs
IOPIN 240 80 In
FLAG -400 128 Vs
IOPIN -400 128 Out
FLAG 48 544 0
FLAG 128 32 op_amp_neg
FLAG 128 0 op_amp_pos
FLAG 640 -48 emitter
FLAG 768 336 collector
FLAG 528 160 base
FLAG 272 160 op_amp_out
FLAG -432 336 0
FLAG 192 272 0
SYMBOL OpAmps\\opamp2 176 96 R0
WINDOW 3 23 105 Left 2
SYMATTR Value LM358
SYMATTR InstName U1
SYMBOL res -320 112 R270
WINDOW 0 32 56 VTop 2
WINDOW 3 0 56 VBottom 2
SYMATTR InstName R1
SYMATTR Value 1.6k
SYMBOL voltage -432 176 R0
SYMATTR InstName Vs
SYMATTR Value 5
SYMBOL TL431 -112 208 R0
SYMATTR InstName U2
SYMBOL res 272 320 R90
WINDOW 0 0 56 VBottom 2
WINDOW 3 32 56 VTop 2
SYMATTR InstName RF1
SYMATTR Value 10k
SYMBOL res 64 496 R180
WINDOW 0 36 76 Left 2
WINDOW 3 36 40 Left 2
SYMATTR InstName RF2
SYMATTR Value 30k
SYMBOL res 464 144 R90
WINDOW 0 0 56 VBottom 2
WINDOW 3 32 56 VTop 2
SYMATTR InstName R3
SYMATTR Value 560
SYMBOL cap 448 400 R0
SYMATTR InstName C1
SYMATTR Value 100µ
SYMBOL current 768 384 R0
WINDOW 123 0 0 Left 0
WINDOW 39 0 0 Left 0
SYMATTR InstName I1
SYMATTR Value PULSE(11m 120m 5m 1n 1n 350u 6m)
SYMBOL pnp 576 208 M180
SYMATTR InstName Qtip42c
SYMBOL res 464 -16 R0
SYMATTR InstName R2
SYMATTR Value 10k
SYMBOL cap 576 400 R0
SYMATTR InstName C2
SYMATTR Value 1n
TEXT 176 560 Left 2 !.include LM358.lib\n.include TIP42C.lib
TEXT 208 640 Left 2 ;.op
TEXT 208 672 Left 2 !;.step param Rtest 500 800 10\n.tran 0 20m 0 10u
